<?xml version="1.0" encoding="UTF-8"?>

<!-- generated on Tue Oct 30 15:08:42 2018 by SUMO polyconvert Version 0.32.0
<?xml version="1.0" encoding="UTF-8"?>

<configuration xmlns:xsi="http://www.w3.org/2001/XMLSchema-instance" xsi:noNamespaceSchemaLocation="http://sumo.dlr.de/xsd/polyconvertConfiguration.xsd">

    <input>
        <net-file value="tl.net.xml"/>
        <osm-files value="tl.osm"/>
        <type-file value="osmPolyconvert.typ.xml"/>
    </input>

    <output>
        <output-file value="tl.poly.xml"/>
    </output>

    <processing>
        <poi-layer-offset value="5"/>
    </processing>

</configuration>
-->

<additional xmlns:xsi="http://www.w3.org/2001/XMLSchema-instance" xsi:noNamespaceSchemaLocation="http://sumo.dlr.de/xsd/additional_file.xsd">
    <location netOffset="-545685.54,420942.44" convBoundary="-0.00,-1794.98,4863.06,8954.08" origBoundary="-38.588553,-3.824460,-38.544730,-3.727227" projParameter="+proj=utm +zone=24 +ellps=WGS84 +datum=WGS84 +units=m +no_defs"/>

    <poly id="179913244" type="water" color="181,209,209" fill="1" layer="-4.00" shape="2392.57,3908.19 2390.78,3901.10 2384.23,3894.00 2380.65,3886.90 2378.25,3878.03 2376.46,3869.16 2378.25,3862.65 2381.82,3856.73 2392.51,3850.87 2401.48,3847.84 2403.23,3842.57 2405.02,3837.24 2407.39,3831.92 2412.16,3833.69 2413.94,3831.32 2419.30,3828.37 2424.70,3824.75 2425.28,3820.61 2424.69,3815.88 2421.70,3809.96 2422.90,3805.23 2428.85,3801.08 2434.21,3793.39 2441.32,3786.94 2445.50,3780.43 2449.06,3772.73 2453.83,3774.50 2460.97,3778.05 2466.34,3783.37 2465.15,3790.48 2470.52,3791.66 2475.30,3791.59 2479.45,3795.20 2477.66,3800.53 2478.87,3807.63 2484.25,3815.26 2488.43,3809.93 2488.42,3804.60 2496.73,3804.07 2503.88,3806.43 2509.24,3812.94 2517.02,3817.01 2524.14,3815.30 2532.48,3814.70 2543.23,3818.78 2552.17,3821.73 2564.64,3823.56 2577.76,3835.39 2586.10,3840.71 2596.85,3844.78 2607.55,3850.16 2613.54,3857.20 2620.66,3864.36 2627.21,3874.42 2634.39,3880.27 2640.32,3892.16 2643.34,3898.01 2645.13,3908.66 2649.27,3915.82 2659.41,3926.46 2665.36,3938.30 2670.13,3951.90 2670.17,3963.68 2668.99,3972.55 2671.94,3979.71 2675.52,3988.59 2676.15,3995.63 2680.89,4002.78 2688.06,4008.05 2698.79,4012.18 2704.12,4012.83 2713.65,4014.60 2719.61,4014.00 2726.78,4013.35 2735.12,4008.61 2739.26,4004.53 2744.62,3998.02 2752.99,3996.18 2756.69,3989.11 2751.71,3982.88 2751.45,3977.56 2756.96,3977.34 2763.90,3982.61 2764.31,3990.38 2771.39,3992.37 2780.98,3999.74 2783.06,4014.09 2790.20,4017.79 2788.74,4028.70 2786.95,4033.43 2780.40,4031.67 2778.02,4028.71 2771.84,4024.13 2765.14,4027.59 2761.94,4035.23 2765.52,4040.55 2769.06,4040.61 2769.07,4053.03 2769.07,4063.69 2765.53,4070.13 2761.96,4075.46 2754.79,4077.89 2746.48,4080.80 2739.33,4080.80 2729.79,4079.62 2719.08,4081.40 2710.74,4083.18 2707.14,4090.33 2696.44,4089.70 2689.27,4086.21 2683.66,4081.47 2680.44,4074.96 2676.81,4071.23 2672.02,4071.36 2669.63,4080.24 2676.75,4087.98 2680.33,4096.86 2685.70,4103.37 2687.49,4115.79 2692.86,4114.60 2698.22,4119.93 2707.79,4126.37 2715.49,4124.65 2722.07,4118.08 2731.58,4114.59 2740.50,4111.03 2754.80,4106.29 2764.95,4100.31 2775.64,4097.99 2783.39,4095.04 2788.75,4100.35 2788.19,4112.14 2786.38,4119.89 2790.57,4121.60 2795.32,4130.53 2804.85,4134.07 2807.83,4138.21 2803.10,4141.71 2797.14,4141.71 2795.35,4150.59 2798.31,4160.12 2803.08,4166.62 2804.90,4174.85 2805.50,4183.13 2797.76,4189.64 2797.16,4196.15 2804.28,4200.35 2805.51,4206.79 2806.71,4219.81 2806.69,4230.52 2802.55,4238.15 2797.79,4250.58 2798.98,4261.24 2802.56,4271.88 2806.71,4280.81 2807.94,4294.36 2804.37,4307.38 2800.77,4319.28 2795.44,4332.24 2791.87,4345.84 2788.28,4358.34 2781.17,4373.06 2778.20,4381.94 2774.03,4387.27 2765.09,4395.57 2759.75,4403.25 2765.67,4408.05 2768.66,4415.74 2762.73,4428.11 2766.91,4444.08 2760.37,4471.30 2754.99,4490.29 2747.28,4496.15 2747.25,4508.65 2744.32,4520.42 2740.12,4529.95 2731.81,4535.22 2731.79,4545.93 2734.81,4554.75 2733.02,4561.25 2730.64,4573.09 2727.07,4586.11 2723.50,4596.76 2716.37,4614.51 2712.77,4626.99 2706.25,4639.37 2700.30,4650.03 2694.92,4664.29 2689.59,4674.88 2679.44,4678.49 2669.91,4681.46 2668.13,4689.15 2655.65,4696.20 2625.21,4714.52 2583.89,4739.40 2551.97,4758.61 2545.49,4762.52 2549.65,4767.85 2543.71,4778.49 2530.01,4781.46 2534.57,4804.32 2529.97,4805.96 2523.22,4808.35 2510.33,4803.42 2503.19,4801.66 2494.59,4805.44 2493.22,4813.61 2485.61,4823.27 2478.93,4823.91 2470.15,4829.60 2461.53,4830.31 2440.67,4824.41 2422.06,4824.12 2411.19,4818.21 2403.12,4806.73 2396.29,4795.43 2389.69,4776.56 2386.12,4771.84 2386.45,4766.16 2377.80,4757.27 2364.98,4742.79 2347.97,4725.41 2334.89,4710.86 2323.54,4689.32 2304.09,4665.75 2303.01,4664.43 2289.59,4648.15 2279.16,4634.84 2264.84,4596.98 2247.11,4586.74 2236.53,4578.24 2224.90,4582.57 2206.11,4583.74 2165.00,4556.32 2133.29,4505.05 2137.01,4482.63 2168.70,4474.50 2183.14,4472.00 2200.45,4466.03 2202.44,4458.75 2197.11,4446.20 2193.10,4426.37 2182.44,4395.97 2167.13,4380.11 2144.20,4385.22 2135.23,4367.45 2130.34,4353.25 2125.24,4331.42 2120.93,4298.23 2121.37,4262.67 2119.63,4246.68 2119.92,4231.40 2122.89,4214.23 2122.88,4198.85 2124.66,4189.38 2132.38,4179.38 2140.72,4150.91 2143.10,4136.71 2157.99,4126.06 2173.44,4108.95 2180.58,4102.43 2202.64,4095.86 2214.56,4095.85 2225.28,4094.07 2255.62,4075.77 2263.39,4062.69 2274.84,4056.69 2289.43,4051.30 2297.34,4056.16 2301.26,4055.84 2307.46,4049.06 2312.79,4040.25 2313.41,4031.30 2318.16,4018.88 2328.85,4007.69 2337.19,4002.36 2347.91,3986.38 2346.15,3978.04 2346.14,3968.57 2347.93,3961.47 2364.57,3949.69 2365.78,3941.34 2369.36,3936.01 2376.47,3932.52 2384.21,3925.42 2385.43,3918.25 2392.57,3908.19"/>
    <poly id="179913376" type="leisure" color="207,245,201" fill="0" layer="-2.00" shape="2449.35,3760.82 2438.94,3757.32 2431.08,3755.86 2419.89,3755.01 2415.16,3755.07 2408.76,3755.08 2403.70,3756.27 2399.35,3758.21 2393.95,3761.52 2385.05,3770.35 2338.29,3819.99 2332.16,3820.06 2326.71,3823.32 2324.28,3825.48 2378.25,3878.03 2376.46,3869.16 2378.25,3862.65 2381.82,3856.73 2392.51,3850.87 2401.48,3847.84 2403.23,3842.57 2405.02,3837.24 2407.39,3831.92 2412.16,3833.69 2413.94,3831.32 2419.30,3828.37 2424.70,3824.75 2425.28,3820.61 2424.69,3815.88 2421.70,3809.96 2422.90,3805.23 2428.85,3801.08 2434.21,3793.39 2441.32,3786.94 2445.50,3780.43 2449.06,3772.73 2453.83,3774.50 2460.97,3778.05 2466.34,3783.37 2465.15,3790.48 2470.52,3791.66 2475.30,3791.59 2479.45,3795.20 2477.66,3800.53 2478.87,3807.63 2484.25,3815.26 2488.43,3809.93 2488.42,3804.60 2496.73,3804.07 2503.88,3806.43 2509.24,3812.94 2517.02,3817.01 2524.14,3815.30 2532.48,3814.70 2543.23,3818.78 2552.17,3821.73 2564.64,3823.56 2577.76,3835.39 2586.10,3840.71 2596.85,3844.78 2607.55,3850.16 2613.54,3857.20 2620.66,3864.36 2627.21,3874.42 2634.39,3880.27 2640.32,3892.16 2643.34,3898.01 2645.13,3908.66 2649.27,3915.82 2659.41,3926.46 2665.36,3938.30 2670.13,3951.90 2670.17,3963.68 2668.99,3972.55 2671.94,3979.71 2675.52,3988.59 2676.15,3995.63 2680.89,4002.78 2688.06,4008.05 2698.79,4012.18 2704.12,4012.83 2713.65,4014.60 2719.61,4014.00 2726.78,4013.35 2735.12,4008.61 2739.26,4004.53 2744.62,3998.02 2752.99,3996.18 2756.69,3989.11 2751.71,3982.88 2751.45,3977.56"/>
    <poly id="179913376#1" type="water" color="181,209,209" fill="0" layer="-4.00" shape="2449.35,3760.82 2438.94,3757.32 2431.08,3755.86 2419.89,3755.01 2415.16,3755.07 2408.76,3755.08 2403.70,3756.27 2399.35,3758.21 2393.95,3761.52 2385.05,3770.35 2338.29,3819.99 2332.16,3820.06 2326.71,3823.32 2324.28,3825.48 2378.25,3878.03 2376.46,3869.16 2378.25,3862.65 2381.82,3856.73 2392.51,3850.87 2401.48,3847.84 2403.23,3842.57 2405.02,3837.24 2407.39,3831.92 2412.16,3833.69 2413.94,3831.32 2419.30,3828.37 2424.70,3824.75 2425.28,3820.61 2424.69,3815.88 2421.70,3809.96 2422.90,3805.23 2428.85,3801.08 2434.21,3793.39 2441.32,3786.94 2445.50,3780.43 2449.06,3772.73 2453.83,3774.50 2460.97,3778.05 2466.34,3783.37 2465.15,3790.48 2470.52,3791.66 2475.30,3791.59 2479.45,3795.20 2477.66,3800.53 2478.87,3807.63 2484.25,3815.26 2488.43,3809.93 2488.42,3804.60 2496.73,3804.07 2503.88,3806.43 2509.24,3812.94 2517.02,3817.01 2524.14,3815.30 2532.48,3814.70 2543.23,3818.78 2552.17,3821.73 2564.64,3823.56 2577.76,3835.39 2586.10,3840.71 2596.85,3844.78 2607.55,3850.16 2613.54,3857.20 2620.66,3864.36 2627.21,3874.42 2634.39,3880.27 2640.32,3892.16 2643.34,3898.01 2645.13,3908.66 2649.27,3915.82 2659.41,3926.46 2665.36,3938.30 2670.13,3951.90 2670.17,3963.68 2668.99,3972.55 2671.94,3979.71 2675.52,3988.59 2676.15,3995.63 2680.89,4002.78 2688.06,4008.05 2698.79,4012.18 2704.12,4012.83 2713.65,4014.60 2719.61,4014.00 2726.78,4013.35 2735.12,4008.61 2739.26,4004.53 2744.62,3998.02 2752.99,3996.18 2756.69,3989.11 2751.71,3982.88 2751.45,3977.56"/>
    <poly id="180003634" type="leisure" color="207,245,201" fill="0" layer="-2.00" shape="2751.45,3977.56 2756.96,3977.34 2763.90,3982.61 2764.31,3990.38 2771.39,3992.37 2780.98,3999.74 2783.06,4014.09 2790.20,4017.79 2788.74,4028.70 2786.95,4033.43 2780.40,4031.67 2778.02,4028.71 2771.84,4024.13 2765.14,4027.59 2761.94,4035.23 2765.52,4040.55 2769.06,4040.61 2769.07,4053.03 2769.07,4063.69 2785.19,4058.01 2787.88,4055.05 2792.84,4055.97 2797.40,4054.45 2800.89,4052.12 2802.76,4040.26 2808.11,4031.38 2807.22,4027.82 2805.34,4025.79 2798.28,4030.20 2795.69,4024.35 2805.64,4018.98 2802.14,4005.34 2792.91,3988.49 2782.17,3973.70 2761.31,3957.73 2747.46,3974.92"/>
    <poly id="180003634#1" type="water" color="181,209,209" fill="0" layer="-4.00" shape="2751.45,3977.56 2756.96,3977.34 2763.90,3982.61 2764.31,3990.38 2771.39,3992.37 2780.98,3999.74 2783.06,4014.09 2790.20,4017.79 2788.74,4028.70 2786.95,4033.43 2780.40,4031.67 2778.02,4028.71 2771.84,4024.13 2765.14,4027.59 2761.94,4035.23 2765.52,4040.55 2769.06,4040.61 2769.07,4053.03 2769.07,4063.69 2785.19,4058.01 2787.88,4055.05 2792.84,4055.97 2797.40,4054.45 2800.89,4052.12 2802.76,4040.26 2808.11,4031.38 2807.22,4027.82 2805.34,4025.79 2798.28,4030.20 2795.69,4024.35 2805.64,4018.98 2802.14,4005.34 2792.91,3988.49 2782.17,3973.70 2761.31,3957.73 2747.46,3974.92"/>
    <poly id="180004020" type="leisure" color="207,245,201" fill="1" layer="-2.00" shape="2791.45,4070.73 2787.88,4064.81 2784.50,4062.77 2785.19,4058.01 2769.07,4063.69 2765.53,4070.13 2761.96,4075.46 2754.79,4077.89 2746.48,4080.80 2739.33,4080.80 2729.79,4079.62 2719.08,4081.40 2710.74,4083.18 2707.14,4090.33 2696.44,4089.70 2689.27,4086.21 2683.66,4081.47 2680.44,4074.96 2676.81,4071.23 2672.02,4071.36 2669.63,4080.24 2676.75,4087.98 2680.33,4096.86 2685.70,4103.37 2687.49,4115.79 2692.86,4114.60 2698.22,4119.93 2707.79,4126.37 2715.49,4124.65 2722.07,4118.08 2731.58,4114.59 2740.50,4111.03 2754.80,4106.29 2764.95,4100.31 2775.64,4097.99 2783.39,4095.04 2788.75,4100.35 2788.19,4112.14 2792.34,4109.02 2803.89,4100.33 2796.82,4088.77 2796.23,4086.11 2799.51,4085.23 2804.77,4086.14 2803.97,4082.26 2802.18,4078.71 2795.24,4075.49 2791.45,4070.73"/>
    <poly id="180004020#1" type="water" color="181,209,209" fill="1" layer="-4.00" shape="2791.45,4070.73 2787.88,4064.81 2784.50,4062.77 2785.19,4058.01 2769.07,4063.69 2765.53,4070.13 2761.96,4075.46 2754.79,4077.89 2746.48,4080.80 2739.33,4080.80 2729.79,4079.62 2719.08,4081.40 2710.74,4083.18 2707.14,4090.33 2696.44,4089.70 2689.27,4086.21 2683.66,4081.47 2680.44,4074.96 2676.81,4071.23 2672.02,4071.36 2669.63,4080.24 2676.75,4087.98 2680.33,4096.86 2685.70,4103.37 2687.49,4115.79 2692.86,4114.60 2698.22,4119.93 2707.79,4126.37 2715.49,4124.65 2722.07,4118.08 2731.58,4114.59 2740.50,4111.03 2754.80,4106.29 2764.95,4100.31 2775.64,4097.99 2783.39,4095.04 2788.75,4100.35 2788.19,4112.14 2792.34,4109.02 2803.89,4100.33 2796.82,4088.77 2796.23,4086.11 2799.51,4085.23 2804.77,4086.14 2803.97,4082.26 2802.18,4078.71 2795.24,4075.49 2791.45,4070.73"/>
    <poly id="180004856" type="leisure" color="207,245,201" fill="1" layer="-2.00" shape="2689.14,3926.05 2704.61,3906.81 2730.24,3926.03 2714.67,3946.18 2689.14,3926.05"/>
    <poly id="180004856#1" type="sport" color="79,230,125" fill="1" layer="-2.00" shape="2689.14,3926.05 2704.61,3906.81 2730.24,3926.03 2714.67,3946.18 2689.14,3926.05"/>
    <poly id="180004933" type="building" color="255,230,230" fill="0" layer="-1.00" shape="2746.58,3876.17 2740.47,3884.13 2743.76,3886.67 2748.43,3880.61 2759.56,3889.16 2753.19,3897.46 2744.78,3908.41 2732.39,3924.55 2721.43,3916.13 2741.31,3890.23 2737.81,3887.54 2718.33,3912.90 2710.61,3906.97 2710.01,3907.75 2702.87,3902.27 2708.37,3895.10 2711.68,3897.65 2713.56,3895.21 2722.97,3882.97 2719.11,3880.01"/>
    <poly id="180005134" type="leisure" color="207,245,201" fill="1" layer="-2.00" shape="2814.73,4160.06 2809.67,4152.67 2806.68,4147.05 2807.57,4143.80 2811.44,4139.06 2807.83,4138.21 2803.10,4141.71 2797.14,4141.71 2795.35,4150.59 2798.31,4160.12 2803.08,4166.62 2804.90,4174.85 2805.50,4183.13 2797.76,4189.64 2797.16,4196.15 2804.28,4200.35 2805.51,4206.79 2806.71,4219.81 2806.69,4230.52 2802.55,4238.15 2797.79,4250.58 2798.98,4261.24 2802.56,4271.88 2806.71,4280.81 2807.94,4294.36 2804.37,4307.38 2800.77,4319.28 2795.44,4332.24 2791.87,4345.84 2788.28,4358.34 2781.17,4373.06 2778.20,4381.94 2774.03,4387.27 2765.09,4395.57 2759.75,4403.25 2765.67,4408.05 2768.66,4415.74 2762.73,4428.11 2766.91,4444.08 2760.37,4471.30 2754.99,4490.29 2802.68,4490.24 2800.26,4409.76 2799.06,4396.45 2799.36,4384.32 2800.84,4374.56 2803.51,4368.34 2815.12,4359.46 2865.15,4338.14 2880.24,4323.66 2884.41,4314.48 2885.38,4299.67 2881.80,4281.92 2838.85,4154.42 2835.18,4150.91 2829.91,4152.06 2827.53,4155.62 2814.73,4160.06"/>
    <poly id="180005134#1" type="water" color="181,209,209" fill="1" layer="-4.00" shape="2814.73,4160.06 2809.67,4152.67 2806.68,4147.05 2807.57,4143.80 2811.44,4139.06 2807.83,4138.21 2803.10,4141.71 2797.14,4141.71 2795.35,4150.59 2798.31,4160.12 2803.08,4166.62 2804.90,4174.85 2805.50,4183.13 2797.76,4189.64 2797.16,4196.15 2804.28,4200.35 2805.51,4206.79 2806.71,4219.81 2806.69,4230.52 2802.55,4238.15 2797.79,4250.58 2798.98,4261.24 2802.56,4271.88 2806.71,4280.81 2807.94,4294.36 2804.37,4307.38 2800.77,4319.28 2795.44,4332.24 2791.87,4345.84 2788.28,4358.34 2781.17,4373.06 2778.20,4381.94 2774.03,4387.27 2765.09,4395.57 2759.75,4403.25 2765.67,4408.05 2768.66,4415.74 2762.73,4428.11 2766.91,4444.08 2760.37,4471.30 2754.99,4490.29 2802.68,4490.24 2800.26,4409.76 2799.06,4396.45 2799.36,4384.32 2800.84,4374.56 2803.51,4368.34 2815.12,4359.46 2865.15,4338.14 2880.24,4323.66 2884.41,4314.48 2885.38,4299.67 2881.80,4281.92 2838.85,4154.42 2835.18,4150.91 2829.91,4152.06 2827.53,4155.62 2814.73,4160.06"/>
    <poly id="180005135" type="landuse" color="194,194,130" fill="1" layer="-3.00" shape="2798.62,4118.65 2796.83,4111.26 2792.97,4110.66 2792.34,4109.02 2788.19,4112.14 2786.38,4119.89 2790.57,4121.60 2795.32,4130.53 2804.85,4134.07 2807.83,4138.21 2811.44,4139.06 2818.58,4132.55 2812.93,4124.56 2812.33,4122.19 2808.75,4119.24 2805.78,4121.90 2801.60,4123.08 2798.62,4118.65"/>
    <poly id="180005135#1" type="leisure" color="207,245,201" fill="1" layer="-2.00" shape="2798.62,4118.65 2796.83,4111.26 2792.97,4110.66 2792.34,4109.02 2788.19,4112.14 2786.38,4119.89 2790.57,4121.60 2795.32,4130.53 2804.85,4134.07 2807.83,4138.21 2811.44,4139.06 2818.58,4132.55 2812.93,4124.56 2812.33,4122.19 2808.75,4119.24 2805.78,4121.90 2801.60,4123.08 2798.62,4118.65"/>
    <poly id="180005428" type="leisure" color="207,245,201" fill="1" layer="-2.00" shape="2803.59,4531.65 2802.68,4490.24 2754.99,4490.29 2747.28,4496.15 2747.25,4508.65 2744.32,4520.42 2740.12,4529.95 2731.81,4535.22 2731.79,4545.93 2734.81,4554.75 2733.02,4561.25 2730.64,4573.09 2727.07,4586.11 2723.50,4596.76 2716.37,4614.51 2712.77,4626.99 2706.25,4639.37 2700.30,4650.03 2694.92,4664.29 2689.59,4674.88 2679.44,4678.49 2669.91,4681.46 2668.13,4689.15 2655.65,4696.20 2661.31,4699.46 2664.00,4703.00 2666.59,4704.23 2676.51,4704.76 2688.93,4698.89 2685.35,4695.34 2684.54,4691.75 2687.14,4687.95 2699.14,4687.01 2703.21,4684.68 2712.24,4682.86 2717.00,4684.34 2720.28,4683.74 2734.87,4679.00 2739.93,4675.74 2747.59,4674.89 2751.17,4673.12 2756.81,4657.44 2769.90,4630.21 2789.84,4597.66 2799.15,4577.79 2801.54,4567.44 2803.90,4550.59 2803.59,4531.65"/>
    <poly id="180005428#1" type="water" color="181,209,209" fill="1" layer="-4.00" shape="2803.59,4531.65 2802.68,4490.24 2754.99,4490.29 2747.28,4496.15 2747.25,4508.65 2744.32,4520.42 2740.12,4529.95 2731.81,4535.22 2731.79,4545.93 2734.81,4554.75 2733.02,4561.25 2730.64,4573.09 2727.07,4586.11 2723.50,4596.76 2716.37,4614.51 2712.77,4626.99 2706.25,4639.37 2700.30,4650.03 2694.92,4664.29 2689.59,4674.88 2679.44,4678.49 2669.91,4681.46 2668.13,4689.15 2655.65,4696.20 2661.31,4699.46 2664.00,4703.00 2666.59,4704.23 2676.51,4704.76 2688.93,4698.89 2685.35,4695.34 2684.54,4691.75 2687.14,4687.95 2699.14,4687.01 2703.21,4684.68 2712.24,4682.86 2717.00,4684.34 2720.28,4683.74 2734.87,4679.00 2739.93,4675.74 2747.59,4674.89 2751.17,4673.12 2756.81,4657.44 2769.90,4630.21 2789.84,4597.66 2799.15,4577.79 2801.54,4567.44 2803.90,4550.59 2803.59,4531.65"/>
    <poly id="185833050" type="landuse" color="194,194,130" fill="1" layer="-3.00" shape="1664.16,4394.54 1671.94,4452.27 1725.85,4442.77 1772.32,4432.25 1786.96,4420.97 1801.43,4426.59 1822.50,4424.42 1844.08,4412.49 1866.52,4398.48 1896.77,4362.03 1919.35,4326.81 1924.10,4308.81 1923.80,4307.17 1921.54,4294.70 1912.30,4277.83 1898.05,4277.45 1835.44,4294.21 1736.09,4316.59 1706.91,4282.04 1672.35,4304.35 1665.28,4355.81 1659.80,4382.03 1664.16,4394.54"/>
    <poly id="189473384" type="building" color="255,230,230" fill="1" layer="-1.00" shape="2774.25,3623.27 2688.27,3555.39 2702.38,3537.78 2788.15,3606.03 2774.25,3623.27"/>
    <poly id="190362487" type="building" color="255,230,230" fill="1" layer="-1.00" shape="3195.81,3377.31 3191.24,3377.31 3182.98,3387.19 3192.88,3395.18 3203.13,3382.86 3195.81,3377.31"/>
    <poly id="190362488" type="building" color="255,230,230" fill="1" layer="-1.00" shape="3192.88,3395.18 3202.42,3402.88 3212.07,3389.90 3203.13,3382.86 3192.88,3395.18"/>
    <poly id="190362490" type="building" color="255,230,230" fill="1" layer="-1.00" shape="3202.42,3402.88 3212.07,3389.90 3232.29,3406.75 3221.93,3418.76 3202.42,3402.88"/>
    <poly id="190362495" type="building" color="255,230,230" fill="1" layer="-1.00" shape="3182.98,3387.19 3179.25,3391.74 3175.47,3396.39 3194.34,3412.17 3202.42,3402.88 3192.88,3395.18 3182.98,3387.19"/>
    <poly id="190362499" type="building" color="255,230,230" fill="1" layer="-1.00" shape="3202.42,3402.88 3221.93,3418.76 3214.21,3427.96 3194.34,3412.17 3202.42,3402.88"/>
    <poly id="190362501" type="building" color="255,230,230" fill="1" layer="-1.00" shape="3194.34,3412.17 3187.92,3419.37 3169.09,3403.98 3175.47,3396.39 3194.34,3412.17"/>
    <poly id="190362505" type="building" color="255,230,230" fill="1" layer="-1.00" shape="3194.34,3412.17 3186.46,3421.25 3206.47,3437.19 3214.21,3427.96 3194.34,3412.17"/>
    <poly id="190362508" type="building" color="255,230,230" fill="1" layer="-1.00" shape="3169.09,3403.98 3187.92,3419.37 3182.25,3425.93 3163.31,3410.86 3169.09,3403.98"/>
    <poly id="190362511" type="building" color="255,230,230" fill="1" layer="-1.00" shape="3206.47,3437.19 3198.61,3446.21 3179.37,3430.73 3178.77,3430.23 3182.36,3426.05 3186.46,3421.25 3206.47,3437.19"/>
    <poly id="190362514" type="building" color="255,230,230" fill="1" layer="-1.00" shape="3163.31,3410.86 3155.63,3420.04 3156.34,3420.59 3175.25,3435.25 3179.37,3430.73 3178.77,3430.23 3182.36,3426.05 3163.31,3410.86"/>
    <poly id="190362515" type="building" color="255,230,230" fill="1" layer="-1.00" shape="3190.38,3455.19 3198.61,3446.21 3179.37,3430.73 3175.48,3435.46 3171.30,3440.53 3190.38,3455.19"/>
    <poly id="190362517" type="building" color="255,230,230" fill="1" layer="-1.00" shape="3156.34,3420.59 3150.62,3427.53 3169.76,3442.32 3175.48,3435.46 3156.34,3420.59"/>
    <poly id="190362519" type="building" color="255,230,230" fill="1" layer="-1.00" shape="3150.62,3427.53 3145.13,3434.62 3164.34,3449.34 3169.76,3442.32 3150.62,3427.53"/>
    <poly id="190362521" type="building" color="255,230,230" fill="1" layer="-1.00" shape="3164.34,3449.34 3183.62,3464.57 3190.86,3455.68 3171.30,3440.53 3164.34,3449.34"/>
    <poly id="190362523" type="building" color="255,230,230" fill="1" layer="-1.00" shape="3145.13,3434.62 3137.12,3443.44 3157.23,3458.70 3164.34,3449.34 3145.13,3434.62"/>
    <poly id="190362525" type="building" color="255,230,230" fill="1" layer="-1.00" shape="3157.23,3458.70 3176.03,3474.10 3183.62,3464.57 3164.34,3449.34 3157.23,3458.70"/>
    <poly id="190362527" type="building" color="255,230,230" fill="1" layer="-1.00" shape="3157.23,3458.70 3149.43,3468.18 3138.18,3459.35 3129.89,3452.85 3137.12,3443.44 3157.23,3458.70"/>
    <poly id="190362530" type="building" color="255,230,230" fill="1" layer="-1.00" shape="3176.03,3474.10 3167.75,3484.07 3149.43,3468.18 3157.23,3458.70 3176.03,3474.10"/>
    <poly id="190362531" type="building" color="255,230,230" fill="1" layer="-1.00" shape="3129.89,3452.85 3124.58,3458.89 3133.70,3466.08 3138.18,3459.35 3129.89,3452.85"/>
    <poly id="190362534" type="building" color="255,230,230" fill="1" layer="-1.00" shape="3124.58,3458.89 3119.50,3465.31 3139.43,3479.77 3140.91,3478.06 3149.43,3468.18 3138.18,3459.35 3133.70,3466.08 3124.58,3458.89"/>
    <poly id="190362535" type="building" color="255,230,230" fill="1" layer="-1.00" shape="3167.75,3484.07 3160.41,3493.43 3140.91,3478.06 3149.43,3468.18 3167.75,3484.07"/>
    <poly id="190362537" type="building" color="255,230,230" fill="1" layer="-1.00" shape="3139.43,3479.77 3133.01,3487.57 3131.44,3489.47 3112.49,3474.27 3119.50,3465.31 3139.43,3479.77"/>
    <poly id="190362539" type="building" color="255,230,230" fill="1" layer="-1.00" shape="3140.91,3478.06 3133.01,3487.57 3137.40,3490.97 3152.37,3502.60 3160.41,3493.43 3140.91,3478.06"/>
    <poly id="190362541" type="building" color="255,230,230" fill="1" layer="-1.00" shape="3141.23,3515.86 3126.50,3504.21 3137.40,3490.97 3152.37,3502.60 3141.23,3515.86"/>
    <poly id="190362542" type="building" color="255,230,230" fill="1" layer="-1.00" shape="3112.49,3474.27 3099.65,3490.10 3123.17,3508.24 3126.50,3504.21 3137.40,3490.97 3133.01,3487.57 3131.44,3489.47 3112.49,3474.27"/>
    <poly id="190362543" type="building" color="255,230,230" fill="1" layer="-1.00" shape="3099.65,3490.10 3077.07,3517.37 3076.78,3528.92 3095.58,3542.43 3123.17,3508.24 3099.65,3490.10"/>
    <poly id="190362544" type="building" color="255,230,230" fill="1" layer="-1.00" shape="3095.58,3542.43 3112.41,3555.63 3143.28,3517.49 3126.50,3504.21 3095.58,3542.43"/>
    <poly id="191165717" type="landuse" color="194,194,130" fill="0" layer="-3.00" shape="2904.84,3686.19 2933.33,3708.85 2947.11,3718.04 2959.77,3723.21 2972.84,3728.10 2986.28,3732.26 3000.11,3735.84 3013.53,3738.64 3022.92,3740.08"/>
    <poly id="214504605" type="amenity" color="237,199,199" fill="1" layer="-1.00" shape="1994.07,4112.34 2028.38,4067.09 2064.26,4093.95 2101.84,4044.38 2047.09,4003.41 1975.20,4098.23 1994.07,4112.34"/>
    <poly id="214504605#1" type="building" color="255,230,230" fill="1" layer="-1.00" shape="1994.07,4112.34 2028.38,4067.09 2064.26,4093.95 2101.84,4044.38 2047.09,4003.41 1975.20,4098.23 1994.07,4112.34"/>
    <poly id="214529730" type="building" color="255,230,230" fill="1" layer="-1.00" shape="2257.38,3793.80 2254.94,3796.99 2283.66,3818.65 2315.92,3776.45 2285.72,3753.67 2276.44,3765.81 2272.53,3762.86 2269.56,3766.76 2263.36,3762.09 2266.22,3758.33 2247.14,3743.97 2226.73,3770.72 2257.38,3793.80"/>
    <poly id="214529730#1" type="shop" color="237,199,255" fill="1" layer="-1.00" shape="2257.38,3793.80 2254.94,3796.99 2283.66,3818.65 2315.92,3776.45 2285.72,3753.67 2276.44,3765.81 2272.53,3762.86 2269.56,3766.76 2263.36,3762.09 2266.22,3758.33 2247.14,3743.97 2226.73,3770.72 2257.38,3793.80"/>
    <poly id="214742865" type="amenity" color="237,199,199" fill="1" layer="-1.00" shape="2728.37,3526.91 2806.08,3590.63 2865.55,3520.23 2873.60,3510.24 2823.39,3469.43 2807.77,3488.72 2780.26,3467.19 2728.37,3526.91"/>
    <poly id="215094672" type="tourism" color="207,245,201" fill="0" layer="-2.00" shape="2683.81,3925.63 2682.80,3927.00 2680.35,3923.76 2642.62,3840.95 2641.25,3834.34 2641.41,3818.49 2643.79,3811.49 2671.63,3775.27 2711.51,3726.77 2715.79,3726.42 2735.69,3742.05 2736.40,3745.25 2693.68,3798.38 2701.31,3805.96 2696.48,3812.02 2691.19,3818.64 2687.03,3823.86 2708.11,3838.20 2710.61,3843.89 2709.30,3844.47 2705.37,3841.64 2704.54,3843.89 2720.79,3855.67 2704.60,3876.52 2715.35,3884.86"/>
    <poly id="217697788" type="landuse" color="194,194,130" fill="1" layer="-3.00" shape="2276.65,3481.56 2411.38,3371.79 2323.16,3278.81 2279.59,3311.04 2268.59,3320.79 2285.04,3339.08 2189.28,3424.69 2276.65,3481.56"/>
    <poly id="217857780" type="tourism" color="207,245,201" fill="0" layer="-2.00" shape="2586.07,3784.28 2585.21,3785.16 2583.14,3792.33 2583.41,3799.27 2554.42,3784.62 2563.01,3771.32"/>
    <poly id="219029562" type="tourism" color="207,245,201" fill="1" layer="-2.00" shape="2029.04,4069.56 2062.30,4094.99 2010.72,4157.53 1993.09,4133.73 1995.59,4112.72 2029.04,4069.56"/>
    <poly id="227877784" type="residential" color="235,235,227" fill="1" layer="-3.00" shape="2610.32,4776.78 2692.22,4899.66 2627.51,4942.03 2635.24,4953.56 2738.72,5108.22 2625.40,5182.23 2424.69,4874.48 2610.32,4776.78"/>
    <poly id="227877796" type="residential" color="235,235,227" fill="1" layer="-3.00" shape="2805.78,5464.23 2769.42,5407.76 2718.41,5326.98 2841.09,5247.00 2857.41,5272.97 2900.52,5309.10 2941.70,5318.69 2961.37,5334.60 2988.05,5343.87 3015.35,5363.87 3091.23,5439.66 3069.57,5469.40 3215.55,5610.60 3227.23,5599.32 3256.46,5632.13 3121.42,5628.22 3040.91,5611.79 2965.39,5590.27 2917.21,5567.97 2871.97,5534.39 2825.43,5491.08 2805.78,5464.23"/>
    <poly id="227878031" type="residential" color="235,235,227" fill="1" layer="-3.00" shape="3011.20,4808.86 3040.20,4851.95 3069.64,4882.33 3024.17,5008.04 3020.38,5029.04 2926.28,5104.70 2849.42,5034.99 2864.48,5021.05 2818.05,4941.93 2949.03,4855.87 3011.20,4808.86"/>
    <poly id="227878046" type="residential" color="235,235,227" fill="1" layer="-3.00" shape="3026.91,5124.21 3029.36,5148.42 3041.45,5185.78 3083.95,5261.58 3145.02,5330.20 3368.42,5549.94 3284.64,5632.89 3256.46,5632.13 3227.23,5599.32 3215.55,5610.60 3069.57,5469.40 3091.23,5439.66 3015.35,5363.87 2988.05,5343.87 2961.37,5334.60 2941.70,5318.69 2900.52,5309.10 2857.41,5272.97 2841.09,5247.00 3026.91,5124.21"/>
    <poly id="289964398" type="building" color="255,230,230" fill="1" layer="-1.00" shape="1465.83,4951.30 1544.89,4906.56 1554.03,4901.38 1592.54,4872.19 1608.71,4817.03 1601.85,4776.16 1548.76,4666.31 1481.56,4701.25 1505.46,4749.86 1513.55,4745.07 1527.86,4752.84 1497.94,4872.48 1474.16,4863.68 1470.10,4857.39 1426.43,4879.64 1465.83,4951.30"/>
    <poly id="289964398#1" type="shop" color="237,199,255" fill="1" layer="-1.00" shape="1465.83,4951.30 1544.89,4906.56 1554.03,4901.38 1592.54,4872.19 1608.71,4817.03 1601.85,4776.16 1548.76,4666.31 1481.56,4701.25 1505.46,4749.86 1513.55,4745.07 1527.86,4752.84 1497.94,4872.48 1474.16,4863.68 1470.10,4857.39 1426.43,4879.64 1465.83,4951.30"/>
    <poly id="316553045" type="amenity" color="237,199,199" fill="1" layer="-1.00" shape="1610.74,5246.95 1472.23,4987.73 1474.36,4981.97 1694.14,4915.94 1698.92,4917.81 1836.39,5175.15 1834.31,5183.73 1786.67,5207.72 1720.56,5232.01 1651.95,5253.05 1618.12,5250.58 1610.74,5246.95"/>
    <poly id="316553046" type="building" color="255,230,230" fill="1" layer="-1.00" shape="1698.91,4407.68 1691.85,4371.55 1705.21,4368.59 1701.12,4349.04 1688.86,4353.10 1683.65,4327.66 1835.44,4294.21 1851.34,4369.94 1698.91,4407.68"/>
    <poly id="316553046#1" type="shop" color="237,199,255" fill="1" layer="-1.00" shape="1698.91,4407.68 1691.85,4371.55 1705.21,4368.59 1701.12,4349.04 1688.86,4353.10 1683.65,4327.66 1835.44,4294.21 1851.34,4369.94 1698.91,4407.68"/>
    <poly id="316553047" type="parking" color="184,184,179" fill="1" layer="-1.00" shape="1682.42,4411.89 1858.68,4370.57 1857.85,4367.55 1853.42,4367.56 1838.55,4296.27 1893.99,4281.45 1911.80,4281.14 1921.54,4294.70 1923.80,4307.17 1919.35,4326.81 1896.77,4362.03 1866.52,4398.48 1822.50,4424.42 1801.43,4426.59 1786.96,4420.97 1718.68,4436.88 1690.45,4427.83 1682.42,4411.89"/>
    <poly id="329553990" type="aeroway" color="grey" fill="1" layer="-2.00" shape="1615.18,5223.95 1626.27,5218.40 1634.25,5214.41 1643.74,5233.13 1624.67,5242.67 1615.18,5223.95"/>
    <poly id="329559149" type="parking" color="184,184,179" fill="1" layer="-1.00" shape="1705.07,5165.14 1703.65,5162.81 1703.31,5161.78 1703.68,5160.52 1704.91,5158.85 1769.83,5124.51 1771.16,5126.66 1775.00,5127.64 1705.07,5165.14"/>
    <poly id="329559268" type="parking" color="184,184,179" fill="1" layer="-1.00" shape="1706.96,5169.47 1710.05,5175.19 1776.84,5139.55 1773.74,5133.82 1706.96,5169.47"/>
    <poly id="329559572" type="parking" color="184,184,179" fill="1" layer="-1.00" shape="1689.58,4963.49 1688.26,4966.96 1721.56,5030.90 1725.89,5031.07 1689.58,4963.49"/>
    <poly id="329559573" type="parking" color="184,184,179" fill="1" layer="-1.00" shape="1691.40,4939.36 1688.75,4944.82 1719.39,5000.99 1725.04,5001.82 1691.40,4939.36"/>
    <poly id="329559574" type="parking" color="184,184,179" fill="1" layer="-1.00" shape="1730.70,5012.73 1728.72,5017.68 1756.69,5073.37 1761.19,5071.38 1730.70,5012.73"/>
    <poly id="329559575" type="parking" color="184,184,179" fill="1" layer="-1.00" shape="1768.74,5074.00 1773.61,5071.47 1697.06,4925.79 1692.17,4928.33 1768.74,5074.00"/>
    <poly id="329560317" type="leisure" color="207,245,201" fill="1" layer="-2.00" shape="1730.35,4659.93 1806.08,4639.38 1775.44,4522.36 1698.88,4542.91 1730.35,4659.93"/>