<?xml version="1.0" encoding="UTF-8"?>

<!-- generated on Tue Oct 30 15:25:45 2018 by SUMO duarouter Version 0.32.0
<?xml version="1.0" encoding="UTF-8"?>

<configuration xmlns:xsi="http://www.w3.org/2001/XMLSchema-instance" xsi:noNamespaceSchemaLocation="http://sumo.dlr.de/xsd/duarouterConfiguration.xsd">

    <input>
        <net-file value="tl.net.xml"/>
        <route-files value="trips.trips.xml"/>
    </input>

    <output>
        <output-file value="tl.rou.xml"/>
        <alternatives-output value="tl.rou.alt.xml"/>
    </output>

    <processing>
        <ignore-errors value="true"/>
    </processing>

    <time>
        <begin value="0"/>
        <end value="50.0"/>
    </time>

    <report>
        <no-warnings value="true"/>
        <no-step-log value="true"/>
    </report>

</configuration>
-->

<routes xmlns:xsi="http://www.w3.org/2001/XMLSchema-instance" xsi:noNamespaceSchemaLocation="http://sumo.dlr.de/xsd/routes_file.xsd">
    <vehicle id="0" depart="0.00">
        <route edges="-49471033#3 -49471033#2 444273334#7 444273334#8 443597462#1 443597462#2 443597462#3 443597462#4 436421216#1 436421216#2 436421216#3 436421216#4 436421216#5 436421216#6 436421216#7 436421216#8 436421216#9 436421216#10 215099807#0 215099807#1 215099807#2 215099807#3 215099807#4 179913642 383501947 112116584 372588397#0 372588397#1 444659555#0 444659555#1 444659555#2 444659555#3 444659555#4 218290093 112116572#2 -113655832#1 -113655832#0 113655806#6 -441247503#6 -441247503#5 -441247503#4 114379368#0 158057672#1 158057672#2 -158057672#2"/>
    </vehicle>
    <vehicle id="1" depart="1.00">
        <route edges="-442588526#4 442588526#4 442588526#5 442588526#6 442588526#7 114379403#8 114379403#9 436492466 436492469#0 436492469#1 436492469#2 436492469#3 520665270 442605877#0 442605877#1 442605877#2 442605877#3 442605877#4 442605877#5 -437139373#2 -437139373#1 113299406#0 -113655812#13 113655823#0"/>
    </vehicle>
    <vehicle id="3" depart="3.00">
        <route edges="-113299432#4 113299432#4 113299432#5 113655812#6 220557588#0 444893400#6"/>
    </vehicle>
    <vehicle id="6" depart="6.00">
        <route edges="-49471037#4 444273334#1 444273334#2 444273334#3 444273334#4 444273334#5 444273334#6 444273334#7 444273334#8 443597462#1 443597462#2 443597462#3 443597462#4 436421216#1 436421216#2 436421216#3 436421216#4 436421216#5 436421216#6 436421216#7 436421216#8 436421216#9 436421216#10 215099807#0 423148032"/>
    </vehicle>
    <vehicle id="9" depart="9.00">
        <route edges="634389076#0 634389076#1 283485441#3 283485441#4 444198480#1 569352605 441954984#0 441954984#1 441954984#2 441954984#3"/>
    </vehicle>
    <vehicle id="10" depart="10.00">
        <route edges="108395152#7 108395152#8 108395152#9 441247503#0 441247503#1 441247503#2 441247503#3 441247503#4 441247503#5 441247503#6 441247503#7 441247503#8 441247503#9 441247503#10 112116572#0 112116572#1 112116572#2 112116572#3 112116572#4 112116572#5 112116572#6 112116572#7 112116602 372588127#0 372588127#1 372588127#2 372588127#3 372588127#4 372588127#5 372588127#6 372588127#7 372588127#8 372588127#9 372588127#10 436421215 443597463#0 443597463#1 443597463#2 443597465 218683226#0 218683226#1 218683226#2 218683226#3 443597472#0 443597472#1 443597472#2 443597473#1 445330060#6 -445330060#6"/>
    </vehicle>
    <vehicle id="11" depart="11.00">
        <route edges="435025627#2 435025627#3 435025627#4 113299421#3 113299421#4 113299421#5 446564659 435025625#0 435025625#1 437139372 437139373#0 437139373#1 437139373#2 113299413 446564660#0 446564660#1 446564660#2 158060091#0 158060091#1 158060091#2 158060091#3"/>
    </vehicle>
    <vehicle id="12" depart="12.00">
        <route edges="158057646#4 158057646#5 158057646#6 158057646#7 108395152#7 108395152#8 108395152#9 441247503#0 441247503#1 441247503#2 441247503#3 441247503#4 441247503#5 441247503#6 441247503#7 441247503#8 441247503#9 441247503#10 112116572#0 112116572#1 112116572#2 112116572#3 112116572#4 -113655828#1 113655828#1"/>
    </vehicle>
    <vehicle id="13" depart="13.00">
        <route edges="-283485442#3 -283485442#2 -283485442#1 -283485442#0 158061615 214745088#4 179913773#0 179913773#1 179913773#2 108395155#0 -214746551#1 -214746551#0 -158061593 372588398 372588397#0 372588397#1 444659555#0 444659555#1 444659555#2 444659555#3 444659555#4 218290093 112116572#2 -113655832#1 -113655832#0 113655806#6 -441247503#6 -441247503#5 -441247503#4 114379368#0 114379368#1 114379368#2 114379368#3 114379368#4 220557532#2 220557532#3 -234407905#5 220557535#0"/>
    </vehicle>
    <vehicle id="14" depart="14.00">
        <route edges="444659555#7 112116594#0 112116594#1 112116594#2 112116594#3 112116594#4 112116594#5 112116594#6 112116594#7 112116594#8 112116594#9 436492475 436492467 114379457#0 214534802#4 114379455#2"/>
    </vehicle>
    <vehicle id="15" depart="15.00">
        <route edges="49470735#0 -444179739#2 -444179739#1 -444179739#0 445326231 158049350#0 158049350#1 218683226#1 218683226#2 218683226#3 -49471033#2 444273334#7 444273334#8 443597462#1 443597462#2 443597462#3 443597462#4 436421216#1 436421216#2 436421216#3 436421216#4 436421216#5 436421216#6 436421216#7 436421216#8 436421216#9 436421216#10 215099807#0 215099807#1 215099807#2 215099807#3 215099807#4 179913642 383501947 112116584 372588397#0 372588397#1 444659555#0 444659555#1 444659555#2 444659555#3 444659555#4 444659555#5 444659555#6 444659555#7 112116594#0 112116594#1 112116594#2 112116594#3 112116594#4 112116594#5 112116594#6 112116594#7 112116594#8 112116594#9 436492469#0 436492469#1 436492469#2 436492469#3 520665270 442605877#0 442605877#1 442605877#2 442605877#3 442605877#4 442605877#5 113299413 446564660#0 446564660#1"/>
    </vehicle>
    <vehicle id="16" depart="16.00">
        <route edges="158061557#0 158061557#1 158061557#2 496736556#0 496736556#1 435025623#1 435025623#2 435025623#3 435025623#4 435025623#5 435025623#6 435025623#7 435025623#8 446564658 436493196 437089155#5 437089861#0 437089861#1 437089861#2 437089861#3 437089861#4 437089861#5 437089861#6 437089861#7 437089861#8 -24411338 -441247503#10 -441247503#9 -441247503#8 -441247503#7 -441247503#6 -441247503#5 -441247503#4 114379368#0 158057672#1 158057672#2 -234407905#9 158057721#0"/>
    </vehicle>
    <vehicle id="19" depart="19.00">
        <route edges="-444179739#3 -444179739#2 -444179739#1 -444179739#0 445326231 158049350#0 158049350#1 218683226#1 218683226#2 218683226#3 -49471033#2 -49471033#1 -49471033#0 -49470559#11 -283485442#2 -283485442#1 -283485442#0 158061615 214745088#4 444198480#0 444198480#1 569352605 441954984#0 -441954984#0 435025623#0 435025623#1 435025623#2 435025623#3 435025623#4 435025623#5 435025623#6 158061580#0"/>
    </vehicle>
    <vehicle id="21" depart="21.00">
        <route edges="239802978 49470559#6 494161571#0 444273334#3 444273334#4 444273334#5 444273334#6 444273334#7 444273334#8 443597462#1 443597462#2 443597462#3 443597462#4 436421216#1 436421216#2 436421216#3 436421216#4 436421216#5 436421216#6 436421216#7 436421216#8 436421216#9 436421216#10 215099807#0 215099807#1 215099807#2 215099807#3 215099807#4 179913642 383501947 112116584 372588397#0 372588397#1 444659555#0 444659555#1 444659555#2 444659555#3 532063848 112116572#4 -113655828#1 -113655828#0 -113655806#4 158057641#0 158057641#1 158057641#2 220557625#0 158057695#1"/>
    </vehicle>
    <vehicle id="22" depart="22.00">
        <route edges="113299421#9 113299421#10 113299421#11 113299421#12 113299421#13 442588525#0 442588525#1 442588525#2 442588525#3 218287936 -441247503#10 -441247503#9 -441247503#8 -441247503#7 -441247503#6 -441247503#5 -441247503#4 -441247503#3 -441247503#2 -441247503#1 -441247503#0 -108395152#9 -108395152#8 -108395152#7 -108395152#6 -108395152#5 -108395152#4"/>
    </vehicle>
    <vehicle id="23" depart="23.00">
        <route edges="220557625#0 220557625#1 -441247503#4 -441247503#3 -441247503#2 -441247503#1 -441247503#0 -108395152#9 -108395152#8 -108395152#7 158057686#0"/>
    </vehicle>
    <vehicle id="24" depart="24.00">
        <route edges="520665278#1 329559872#2 329557905#0 329557905#1 329557905#2 329557905#3"/>
    </vehicle>
    <vehicle id="25" depart="25.00">
        <route edges="283485442#2 -283485442#2 -283485442#1 -283485442#0 158061615 214745088#4 444198480#0 444198480#1 569352605 441954984#0 -441954984#0 435025623#0 435025623#1 435025623#2 435025623#3 435025623#4 -158061565#5 -158061565#4 -158061565#3 -158061565#2 -158061565#1 158061590#4 158061590#5 158061580#2 158061580#3"/>
    </vehicle>
    <vehicle id="27" depart="27.00">
        <route edges="196615887#1 196615887#2 49470559#6 49470559#7 49470559#8 -49471096#0 634389076#1 283485441#3 283485441#4 -444198480#0 179913773#0 179913773#1 179913773#2 108395155#0 -214746551#1 -214746551#0 -158061593"/>
    </vehicle>
    <vehicle id="28" depart="28.00">
        <route edges="-634389076#3 -283485442#1 -283485442#0 158061615 214745088#4 179913773#0 179913773#1 179913773#2 108395155#0 -214746551#1 -214746551#0 -158061593 372588398 372588397#0 372588397#1 444659555#0 444659555#1 444659555#2 444659555#3 444659555#4 444659555#5 444659555#6 444659555#7 112116594#0 112116594#1 112116594#2 112116594#3 113299421#13 442588525#0 442588525#1"/>
    </vehicle>
    <vehicle id="30" depart="30.00">
        <route edges="-158061590#0 158061550#1 158061550#2 435025623#2 435025623#3 435025623#4 435025623#5 435025623#6 435025623#7 435025623#8 446564658 436493196 435025624#0 435025624#1 435025624#2 435025624#3 446564659 435025625#0 435025625#1 437139372 437139373#0 437139373#1 113655801#0 113655801#1"/>
    </vehicle>
    <vehicle id="31" depart="31.00">
        <route edges="113299436#0 113299436#1 435025624#2 435025624#3 446564659 435025625#0 435025625#1 437139372 437139373#0 437139373#1 437139373#2"/>
    </vehicle>
    <vehicle id="33" depart="33.00">
        <route edges="-113299439#0 113299421#11 113299421#12 113299421#13 442588525#0 442588525#1 442588525#2 442588525#3 218287936 -441247503#10 -441247503#9 -441247503#8 -441247503#7 -441247503#6 -441247503#5 -441247503#4 114379368#0 114379368#1 114379368#2 114379368#3 114379368#4 114379368#5 158057711#4 158057711#5 234407905#4"/>
    </vehicle>
    <vehicle id="34" depart="34.00">
        <route edges="-234407909#7 234407909#7 441247503#1 441247503#2 441247503#3 441247503#4 441247503#5 441247503#6 441247503#7 441247503#8 441247503#9 441247503#10 24411338 436493195#0 436493195#1 436493195#2 436493195#3 440591630 -435025623#8 -435025623#7 -435025623#6 -435025623#5 -435025623#4 -435025623#3 -435025623#2 -435025623#1 -435025623#0 435025623#0"/>
    </vehicle>
    <vehicle id="35" depart="35.00">
        <route edges="437089861#8 112116594#0 112116594#1 112116594#2 112116594#3 112116594#4 112116594#5 112116594#6 437139528 214535728#0 214534802#1 -214534802#1"/>
    </vehicle>
    <vehicle id="36" depart="36.00">
        <route edges="179913773#2 108395155#0 -214746551#1 -214746551#0 -158061593 372588398 372588397#0 372588397#1 444659555#0 444659555#1 444659555#2 444659555#3 444659555#4 444659555#5 444659555#6 444659555#7 112116594#0 112116594#1 112116594#2 112116594#3 112116594#4 112116594#5 112116594#6 437139528 214535728#0 214535728#1 442588526#3 442588526#4 442588526#5 -214535722"/>
    </vehicle>
    <vehicle id="37" depart="37.00">
        <route edges="-49471099#1 -445330060#4 -445330060#3 -49471033#3 -49471033#2 444273334#7 444273334#8 443597462#1 443597462#2 443597462#3 443597462#4 436421216#1 436421216#2 436421216#3 436421216#4 436421216#5 436421216#6 436421216#7 436421216#8 436421216#9 436421216#10 215099807#0 215099807#1 215099807#2 215099807#3 215099807#4 179913642 383501947 112116584 372588397#0 372588397#1 444659555#0 444659555#1 444659555#2 444659555#3 444659555#4 218290093 112116572#2 -113655832#1 -113655832#0 113655806#6 -441247503#6 -441247503#5 -441247503#4 114379368#0 114379368#1 114379368#2 114379368#3 114379368#4 114379368#5 114379368#6 114379368#7"/>
    </vehicle>
    <vehicle id="38" depart="38.00">
        <route edges="114379455#0 114379455#1 114379455#2 442597499#3 436492476 436492466 436492469#0 436492469#1 436492469#2 436492469#3 520665270 442605877#0 442605877#1 442605877#2 442605877#3 442605877#4 442605877#5 -437139373#2 -437139373#1 -437139373#0 -437139372 -435025625#1 -435025625#0 438274906 214507408#0 214507408#1 214507408#2 214507408#3 214507408#4 437089860 436493195#3 440591630 -435025623#8 -435025623#7 -435025623#6 -435025623#5 -435025623#4 -435025623#3 -435025623#2 -435025623#1 -435025623#0 441954984#0 441954984#1 441954984#2 441954984#3 49471037#0 49471037#1 49471037#2 49471037#3 444273334#1 444273334#2"/>
    </vehicle>
    <vehicle id="39" depart="39.00">
        <route edges="220557549#0 444893400#9 437089155#2 437089155#3 437089155#4 437089155#5 437089861#0 437089861#1 437089861#2 437089861#3 437089861#4 437089861#5 437089861#6 437089861#7 437089861#8 -24411338 112116572#0 112116572#1 112116572#2 112116572#3 112116572#4 112116572#5 532063849 444659555#2 532063847 -179913626#1"/>
    </vehicle>
    <vehicle id="40" depart="40.00">
        <route edges="442753575 -435025623#7 -435025623#6 -435025623#5 -435025623#4 -435025623#3 -435025623#2 -435025623#1 -435025623#0 -569352605 -444198480#1 -444198480#0 179913773#0 179913773#1 180003633"/>
    </vehicle>
    <vehicle id="41" depart="41.00">
        <route edges="158057646#1 158057646#2 158057646#3 158057646#4 158057646#5 158057646#6 158057646#7 108395152#7 108395152#8 108395152#9 441247503#0 234407909#8 234407909#9 234407909#10 234407909#11"/>
    </vehicle>
    <vehicle id="43" depart="43.00">
        <route edges="436493195#0 437137266 437089861#5 437089861#6 437089861#7 -435025628 112116594#1 112116594#2 112116594#3 112116594#4 112116594#5 112116594#6 112116594#7 112116594#8 112116594#9 436492475 436492467 114379457#0 114379457#1 -113299399#6 -113299399#5 113299399#5"/>
    </vehicle>
    <vehicle id="44" depart="44.00">
        <route edges="-158061610#6 158061586#3 435025623#4 435025623#5 435025623#6 435025623#7 435025623#8 446564658 102150541#0 102150541#1"/>
    </vehicle>
    <vehicle id="46" depart="46.00">
        <route edges="-234407909#11 -158057726#1 -158057724#1 -158057727#4 -158057727#3 -158057727#2 -158057727#1 -158057727#0 112116572#7 112116602 372588127#0 372588127#1 372588127#2 441847951#1 215099807#2 24411331#0 24411331#1 24411331#2 24411331#3 214745088#0 214745088#1 214745088#2 214745088#3 214745088#4 444198480#0 444198480#1 24332276#0 24332276#1 24332276#2 24332276#3 -49470559#6 -49470559#5 -49470559#4 -49470559#3 436940752#3 436940752#4"/>
    </vehicle>
    <vehicle id="47" depart="47.00">
        <route edges="158061613 214745088#2 158061536 179913773#1 179913773#2 108395155#0 -214746551#1 -214746551#0 -158061593 372588398 372588397#0 372588397#1 444659555#0 444659555#1 444659555#2 444659555#3 444659555#4 218290093 112116572#2 -113655832#1 -113655832#0 113655806#6 -441247503#6 -441247503#5 -441247503#4 -441247503#3 -441247503#2 -441247503#1 -441247503#0 158057654#0 158057654#1 158057654#2 158057654#3 -158057654#3"/>
    </vehicle>
    <vehicle id="48" depart="48.00">
        <route edges="113655832#1 112116572#3 112116572#4 112116572#5 532063849 444659555#2 444659555#3 444659555#4 444659555#5 444659555#6 444659555#7 112116594#0 112116594#1 112116594#2 112116594#3 112116594#4 112116594#5 112116594#6 112116594#7 112116594#8 112116594#9 436492475 436492477 280498796#0 280498796#1"/>
    </vehicle>
    <vehicle id="49" depart="49.00">
        <route edges="445330060#4 -445330060#4 -445330060#3 -49471033#3 -49471033#2 444273334#7 444273334#8 443597462#1 443597462#2 443597462#3 443597462#4 436421216#1 436421216#2 436421216#3 436421216#4 436421216#5 436421216#6 436421216#7 436421216#8 436421216#9 436421216#10 215099807#0 215099807#1 215099807#2 215099807#3 215099807#4 179913642 383501947 112116584 372588397#0 372588397#1 444659555#0 444659555#1 444659555#2 444659555#3 444659555#4 444659555#5 444659555#6 444659555#7 436493195#0 437137266 437089861#5 -113299440#1 113299416#3 113299412#0"/>
    </vehicle>
</routes>
