<?xml version="1.0"?>
<!-- generated on 2018-10-30 15:25:44.820337 by $Id: randomTrips.py 20482 2016-04-18 20:49:42Z behrisch $
  options: -n tl.net.xml -r tl.rou.xml -e 50 -l
-->
<trips>
    <trip id="0" depart="0.00" from="-49471033#3" to="-158057672#2" />
    <trip id="1" depart="1.00" from="-442588526#4" to="113655823#0" />
    <trip id="2" depart="2.00" from="634397886#8" to="113299436#0" />
    <trip id="3" depart="3.00" from="-113299432#4" to="444893400#6" />
    <trip id="4" depart="4.00" from="472110333" to="-214533908#3" />
    <trip id="5" depart="5.00" from="-158061541#1" to="372587086#2" />
    <trip id="6" depart="6.00" from="-49471037#4" to="423148032" />
    <trip id="7" depart="7.00" from="24332273#0" to="444179739#3" />
    <trip id="8" depart="8.00" from="24332273#0" to="-158061538" />
    <trip id="9" depart="9.00" from="634389076#0" to="441954984#3" />
    <trip id="10" depart="10.00" from="108395152#7" to="-445330060#6" />
    <trip id="11" depart="11.00" from="435025627#2" to="158060091#3" />
    <trip id="12" depart="12.00" from="158057646#4" to="113655828#1" />
    <trip id="13" depart="13.00" from="-283485442#3" to="220557535#0" />
    <trip id="14" depart="14.00" from="444659555#7" to="114379455#2" />
    <trip id="15" depart="15.00" from="49470735#0" to="446564660#1" />
    <trip id="16" depart="16.00" from="158061557#0" to="158057721#0" />
    <trip id="17" depart="17.00" from="443597474" to="-472110349#2" />
    <trip id="18" depart="18.00" from="-572738231" to="445330060#1" />
    <trip id="19" depart="19.00" from="-444179739#3" to="158061580#0" />
    <trip id="20" depart="20.00" from="158057628#3" to="-443835834" />
    <trip id="21" depart="21.00" from="239802978" to="158057695#1" />
    <trip id="22" depart="22.00" from="113299421#9" to="-108395152#4" />
    <trip id="23" depart="23.00" from="220557625#0" to="158057686#0" />
    <trip id="24" depart="24.00" from="520665278#1" to="329557905#3" />
    <trip id="25" depart="25.00" from="283485442#2" to="158061580#3" />
    <trip id="26" depart="26.00" from="24332273#0" to="444273334#7" />
    <trip id="27" depart="27.00" from="196615887#1" to="-158061593" />
    <trip id="28" depart="28.00" from="-634389076#3" to="442588525#1" />
    <trip id="29" depart="29.00" from="-49471099#0" to="205015002" />
    <trip id="30" depart="30.00" from="-158061590#0" to="113655801#1" />
    <trip id="31" depart="31.00" from="113299436#0" to="437139373#2" />
    <trip id="32" depart="32.00" from="113655812#2" to="634397886#9" />
    <trip id="33" depart="33.00" from="-113299439#0" to="234407905#4" />
    <trip id="34" depart="34.00" from="-234407909#7" to="435025623#0" />
    <trip id="35" depart="35.00" from="437089861#8" to="-214534802#1" />
    <trip id="36" depart="36.00" from="179913773#2" to="-214535722" />
    <trip id="37" depart="37.00" from="-49471099#1" to="114379368#7" />
    <trip id="38" depart="38.00" from="114379455#0" to="444273334#2" />
    <trip id="39" depart="39.00" from="220557549#0" to="-179913626#1" />
    <trip id="40" depart="40.00" from="442753575" to="180003633" />
    <trip id="41" depart="41.00" from="158057646#1" to="234407909#11" />
    <trip id="42" depart="42.00" from="-158057724#2" to="219029126#5" />
    <trip id="43" depart="43.00" from="436493195#0" to="113299399#5" />
    <trip id="44" depart="44.00" from="-158061610#6" to="102150541#1" />
    <trip id="45" depart="45.00" from="-442588522#2" to="-158057632#0" />
    <trip id="46" depart="46.00" from="-234407909#11" to="436940752#4" />
    <trip id="47" depart="47.00" from="158061613" to="-158057654#3" />
    <trip id="48" depart="48.00" from="113655832#1" to="280498796#1" />
    <trip id="49" depart="49.00" from="445330060#4" to="113299412#0" />
</trips>
